*SPEF "1481-1998"
*DESIGN "up_down_counter"
*DATE "Sun Jun  1 05:24:48 2025"
*VENDOR "Synopsys, Inc."
*PROGRAM "icc2 /home/synopsys_install/icc2/W-2024.09/linux64/nwtn/bin/icc2_exec"
*VERSION "W-2024.09 Aug 25, 2024"
*DESIGN_FLOW "ICC2 SPEF DR"
*DIVIDER /
*DELIMITER :
*BUS_DELIMITER [ ]
*T_UNIT 1 NS
*C_UNIT 1 FF
*R_UNIT 1 OHM
*L_UNIT 1 HENRY

// XY_UNIT 1 UM
// PARASITIC_TECH p1 at 125.000 degree

*NAME_MAP
*1 clk
*2 reset
*3 up_down
*4 count[3]
*5 count[2]
*6 count[1]
*7 count[0]
*8 VDD
*9 VSS
*10 count_reg[0]
*11 count_reg[1]
*12 count_reg[2]
*13 count_reg[3]
*14 HFSINV_113_561
*15 ropt_h_inst_1122
*16 U29
*17 U33
*18 U34
*19 U35
*20 U36
*21 U37
*22 U38
*23 U39
*24 U40
*25 U41
*26 U42
*27 U43
*28 U44
*29 U45
*30 U46
*31 U47
*32 U48
*33 U49
*34 N14
*35 N15
*36 N16
*37 HFSNET_1
*38 ropt_net_0
*39 n25
*40 n26
*41 n27
*42 n28
*43 n29
*44 n30
*45 n31
*46 n32
*47 n33
*48 n34
*49 n35
*50 n36
*51 n37
*52 n38
*53 n39
*54 n40

*PORTS

*1 I *C 0.143 3.520
*2 I *C 0.143 6.256
*3 I *C 5.864 18.905
*4 O *C 12.345 8.992
*5 O *C 12.345 13.552
*6 O *C 0.143 2.912
*7 O *C 6.776 0.143
*8 I *C 6.244 9.524
*9 I *C 6.244 9.524

*D_NET *1 1.601473 //LENGTH 19.387 LUMPCC 0 DR

*CONN
*P *1 I *L 0 *C 0.258 3.520
*I *10:CLK I *L 0.715443 *C 1.715 2.152
*I *12:CLK I *L 0.715443 *C 7.688 8.840
*I *13:CLK I *L 0.715443 *C 7.688 11.880
*I *11:CLK I *L 0.715443 *C 7.688 2.152
*N *1:5 *C 7.689 2.152
*N *1:6 *C 7.840 2.152
*N *1:7 *C 7.840 3.520
*N *1:8 *C 7.688 11.867
*N *1:9 *C 7.688 8.840
*N *1:10 *C 7.688 3.520
*N *1:11 *C 7.675 3.520
*N *1:12 *C 1.760 2.152
*N *1:13 *C 1.760 2.166
*N *1:14 *C 1.760 3.506
*N *1:15 *C 1.760 3.520

*CAP
0 *1 0.05217307
1 *10:CLK 0.0126024
2 *12:CLK 0.001
3 *13:CLK 0.001
4 *11:CLK 0.001
5 *1:5 0.006575677
6 *1:6 0.07656738
7 *1:7 0.07412484
8 *1:8 0.1209028
9 *1:9 0.3421987
10 *1:10 0.2268617
11 *1:11 0.2500296
12 *1:12 0.010527
13 *1:13 0.06200191
14 *1:14 0.06170509
15 *1:15 0.3022026

*RES
0 *1 *1:15 2.682143
1 *1:8 *13:CLK 1
2 *1:9 *12:CLK 1
3 *1:9 *1:8 5.404464
4 *1:5 *11:CLK 1
5 *1:10 *1:9 9.500001
6 *1:10 *1:7 0.2714286
7 *1:11 *1:10 0.5
8 *1:14 *1:13 2.394643
9 *1:15 *1:14 0.5
10 *1:15 *1:11 10.56161
11 *1:12 *10:CLK 0.09166668
12 *1:13 *1:12 1
13 *1:6 *1:5 0.2696429
14 *1:7 *1:6 2.442857

*END

*D_NET *2 0.1088699 //LENGTH 1.647 LUMPCC 0 DR

*CONN
*P *2 I *L 0 *C 0.258 6.256
*I *14:A I *L 0.525653 *C 1.608 6.256
*N *2:2 *C 1.608 6.074
*N *2:3 *C 1.608 6.244
*N *2:4 *C 1.595 6.256

*CAP
0 *2 0.04648506
1 *14:A 0.001
2 *2:2 0.01172455
3 *2:3 0.005547438
4 *2:4 0.04411284

*RES
0 *2 *2:4 2.386607
1 *2:3 *14:A 1
2 *2:3 *2:2 0.2825
3 *2:4 *2:3 0.5

*END

*D_NET *3 1.027932 //LENGTH 11.958 LUMPCC 0 DR

*CONN
*P *3 I *L 0 *C 5.864 18.776
*I *29:A3 I *L 0.472571 *C 5.560 16.012
*I *23:A2 I *L 0.483357 *C 4.040 14.464
*I *22:A2 I *L 0.705032 *C 4.042 16.288
*I *16:A3 I *L 0.666711 *C 5.712 14.312
*I *17:A3 I *L 0.535888 *C 5.712 12.792
*N *3:6 *C 5.712 12.806
*N *3:7 *C 5.712 14.286
*N *3:8 *C 4.040 16.262
*N *3:9 *C 4.040 14.478
*N *3:10 *C 4.054 14.464
*N *3:11 *C 5.699 14.464
*N *3:12 *C 5.713 14.464
*N *3:13 *C 5.864 14.464
*N *3:14 *C 5.864 15.667
*N *3:15 *C 5.851 15.680
*N *3:16 *C 5.421 15.680
*N *3:17 *C 5.408 15.694
*N *3:18 *C 5.421 15.984
*N *3:19 *C 5.408 15.984
*N *3:20 *C 5.408 16.136
*N *3:21 *C 5.256 16.136
*N *3:22 *C 5.256 18.720
*N *3:23 *C 5.864 18.720

*CAP
0 *3 0.004682482
1 *29:A3 0.01594806
2 *23:A2 0.001
3 *22:A2 0.001
4 *16:A3 0.001
5 *17:A3 0.001
6 *3:6 0.06717411
7 *3:7 0.07995171
8 *3:8 0.0795181
9 *3:9 0.07620674
10 *3:10 0.06333031
11 *3:11 0.06530716
12 *3:12 0.01888621
13 *3:13 0.07757329
14 *3:14 0.06672024
15 *3:15 0.01960533
16 *3:16 0.01960533
17 *3:17 0.02054209
18 *3:18 0.01387266
19 *3:19 0.03173924
20 *3:20 0.0199063
21 *3:21 0.121648
22 *3:22 0.1348372
23 *3:23 0.02687755

*RES
0 *3 *3:23 0.1
1 *3:7 *16:A3 1
2 *3:7 *3:6 2.64375
3 *3:6 *17:A3 1
4 *3:18 *29:A3 0.2325
5 *3:19 *3:18 1
6 *3:19 *3:17 0.51875
7 *3:14 *3:13 2.147322
8 *3:15 *3:14 0.5
9 *3:17 *3:16 0.5
10 *3:16 *3:15 0.7660715
11 *3:8 *22:A2 0.5
12 *3:12 *3:11 0.5
13 *3:12 *3:7 0.2966667
14 *3:11 *3:10 2.9375
15 *3:9 *23:A2 1
16 *3:9 *3:8 3.186607
17 *3:10 *3:9 0.5
18 *3:21 *3:20 0.2714286
19 *3:20 *3:19 0.2714286
20 *3:22 *3:21 4.614286
21 *3:23 *3:22 1.085714
22 *3:13 *3:12 0.2696429

*END

*D_NET *4 1.027126 //LENGTH 11.071 LUMPCC 0 DR

*CONN
*I *13:Q O *L 0 *C 11.032 11.424
*I *32:A1 I *L 0.564384 *C 9.360 14.768
*I *31:A2 I *L 0.705032 *C 10.574 16.288
*P *4 O *L 0 *C 12.230 8.992
*N *4:4 *C 11.197 8.992
*N *4:5 *C 11.184 9.005
*N *4:6 *C 11.184 11.424
*N *4:7 *C 10.574 16.288
*N *4:8 *C 10.728 16.288
*N *4:9 *C 9.360 14.636
*N *4:10 *C 9.360 14.756
*N *4:11 *C 9.373 14.768
*N *4:12 *C 10.715 14.768
*N *4:13 *C 10.728 14.768
*N *4:14 *C 10.880 14.768
*N *4:15 *C 10.880 11.424
*N *4:16 *C 11.032 11.424

*CAP
0 *13:Q 0.001
1 *32:A1 0.001
2 *31:A2 0.001
3 *4 0.03392019
4 *4:4 0.03154797
5 *4:5 0.1049788
6 *4:6 0.1140627
7 *4:7 0.008254787
8 *4:8 0.1032316
9 *4:9 0.01128957
10 *4:10 0.003135604
11 *4:11 0.05348421
12 *4:12 0.05546106
13 *4:13 0.101584
14 *4:14 0.1975915
15 *4:15 0.1959182
16 *4:16 0.009665812

*RES
0 *13:Q *4:16 1
1 *4:5 *4:4 0.5
2 *4:4 *4 1.84375
3 *4:16 *4:15 0.2714286
4 *4:16 *4:6 0.2714286
5 *4:7 *31:A2 0.5
6 *4:13 *4:12 0.5
7 *4:13 *4:8 2.714286
8 *4:12 *4:11 2.394643
9 *4:10 *32:A1 1
10 *4:10 *4:9 0.1991667
11 *4:11 *4:10 0.5
12 *4:8 *4:7 0.275
13 *4:14 *4:13 0.2714286
14 *4:15 *4:14 5.971429
15 *4:6 *4:5 4.31875

*END

*D_NET *5 1.614932 //LENGTH 20.170 LUMPCC 0 DR

*CONN
*I *12:Q O *L 0 *C 11.032 9.296
*I *20:A1 I *L 0.564384 *C 9.662 8.107
*I *19:A2 I *L 0.705032 *C 10.882 6.256
*I *28:A1 I *L 0.625865 *C 7.688 14.616
*I *29:A4 I *L 0.46143 *C 5.408 16.288
*P *5 O *L 0 *C 12.230 13.552
*N *5:6 *C 11.032 9.114
*N *5:7 *C 5.408 16.470
*N *5:8 *C 5.408 16.300
*N *5:9 *C 5.421 16.288
*N *5:10 *C 7.675 16.288
*N *5:11 *C 7.688 16.274
*N *5:12 *C 7.688 14.616
*N *5:13 *C 7.688 13.566
*N *5:14 *C 7.702 13.552
*N *5:15 *C 10.728 13.552
*N *5:16 *C 10.728 13.539
*N *5:17 *C 10.882 6.256
*N *5:18 *C 10.728 6.256
*N *5:19 *C 9.512 7.898
*N *5:20 *C 9.524 8.080
*N *5:21 *C 9.512 8.068
*N *5:22 *C 9.526 8.080
*N *5:23 *C 10.715 8.080
*N *5:24 *C 10.728 8.080
*N *5:25 *C 10.728 9.296
*N *5:26 *C 10.742 9.296
*N *5:27 *C 11.019 9.296
*N *5:28 *C 11.032 9.284

*CAP
0 *12:Q 0.001
1 *20:A1 0.01309146
2 *19:A2 0.001
3 *28:A1 0.001
4 *29:A4 0.001
5 *5 0.04711041
6 *5:6 0.01584673
7 *5:7 0.0174937
8 *5:8 0.01131659
9 *5:9 0.07466136
10 *5:10 0.07466136
11 *5:11 0.06299118
12 *5:12 0.1077759
13 *5:13 0.04384516
14 *5:14 0.1211512
15 *5:15 0.1682616
16 *5:16 0.213829
17 *5:17 0.009168079
18 *5:18 0.08785823
19 *5:19 0.01427395
20 *5:20 0.01101606
21 *5:21 0.009826335
22 *5:22 0.04067566
23 *5:23 0.04067566
24 *5:24 0.1281331
25 *5:25 0.2646885
26 *5:26 0.01145565
27 *5:27 0.01145565
28 *5:28 0.009669609

*RES
0 *12:Q *5:28 1
1 *5:17 *19:A2 0.5
2 *5:16 *5:15 0.5
3 *5:15 *5:14 5.404464
4 *5:15 *5 2.682143
5 *5:25 *5:24 2.171429
6 *5:25 *5:16 7.575893
7 *5:26 *5:25 0.5
8 *5:28 *5:27 0.5
9 *5:28 *5:6 0.2825
10 *5:27 *5:26 0.4946429
11 *5:24 *5:23 0.5
12 *5:24 *5:18 3.257143
13 *5:23 *5:22 2.123214
14 *5:21 *5:20 1
15 *5:21 *5:19 0.2825
16 *5:22 *5:21 0.5
17 *5:20 *20:A1 0.2283333
18 *5:12 *28:A1 1
19 *5:12 *5:11 2.961607
20 *5:13 *5:12 1.875893
21 *5:14 *5:13 0.5
22 *5:11 *5:10 0.5
23 *5:10 *5:9 4.023215
24 *5:8 *29:A4 1
25 *5:8 *5:7 0.2825
26 *5:9 *5:8 0.5
27 *5:18 *5:17 0.275

*END

*D_NET *6 2.702405 //LENGTH 34.482 LUMPCC 0 DR

*CONN
*I *11:Q O *L 0 *C 11.032 2.608
*I *16:A1 I *L 0.5564 *C 5.256 14.464
*I *17:A1 I *L 0.621599 *C 6.168 12.944
*I *29:A1 I *L 0.549477 *C 5.864 15.984
*I *25:A2 I *L 0.705032 *C 2.370 14.464
*I *26:A1 I *L 0.564384 *C 2.062 12.668
*P *6 O *L 0 *C 0.258 2.912
*N *6:7 *C 1.925 12.640
*N *6:8 *C 1.913 12.640
*N *6:9 *C 2.368 14.438
*N *6:10 *C 2.368 12.654
*N *6:11 *C 2.355 12.640
*N *6:12 *C 5.878 15.984
*N *6:13 *C 6.168 15.984
*N *6:14 *C 6.168 12.958
*N *6:15 *C 6.168 13.552
*N *6:16 *C 6.155 13.552
*N *6:17 *C 5.256 14.450
*N *6:18 *C 5.256 13.566
*N *6:19 *C 5.256 13.552
*N *6:20 *C 1.622 13.552
*N *6:21 *C 1.608 13.539
*N *6:22 *C 1.608 12.654
*N *6:23 *C 1.622 12.640
*N *6:24 *C 2.064 12.640
*N *6:25 *C 2.064 12.627
*N *6:26 *C 2.064 2.925
*N *6:27 *C 2.064 2.912
*N *6:28 *C 11.019 2.912
*N *6:29 *C 11.032 2.899
*N *6:30 *C 11.032 2.622

*CAP
0 *11:Q 0.001
1 *16:A1 0.001
2 *17:A1 0.001
3 *29:A1 0.001
4 *25:A2 0.001
5 *26:A1 0.01391567
6 *6 0.06737518
7 *6:7 0.01184027
8 *6:8 0.005882221
9 *6:9 0.08800016
10 *6:10 0.09029759
11 *6:11 0.01155875
12 *6:12 0.01391788
13 *6:13 0.128086
14 *6:14 0.02558472
15 *6:15 0.1373807
16 *6:16 0.03192845
17 *6:17 0.04525315
18 *6:18 0.04668583
19 *6:19 0.1821499
20 *6:20 0.1478493
21 *6:21 0.04211877
22 *6:22 0.04211877
23 *6:23 0.01717262
24 *6:24 0.03110359
25 *6:25 0.3751439
26 *6:26 0.3671863
27 *6:27 0.4076188
28 *6:28 0.3402436
29 *6:29 0.01421281
30 *6:30 0.01278013

*RES
0 *11:Q *6:30 1
1 *6:14 *17:A1 1
2 *6:12 *29:A1 1
3 *6:15 *6:14 1.061607
4 *6:15 *6:13 4.342858
5 *6:16 *6:15 0.5
6 *6:18 *6:17 1.580357
7 *6:19 *6:18 0.5
8 *6:19 *6:16 1.604464
9 *6:17 *16:A1 1
10 *6:10 *6:9 3.186607
11 *6:11 *6:10 0.5
12 *6:9 *25:A2 0.5
13 *6:29 *6:28 0.5
14 *6:28 *6:27 15.99018
15 *6:30 *6:29 0.4946429
16 *6:25 *6:24 0.5
17 *6:25 *6:8 0.2696429
18 *6:24 *6:23 0.7901786
19 *6:24 *6:11 0.5187501
20 *6:26 *6:25 17.32322
21 *6:27 *6:26 0.5
22 *6:27 *6 3.225
23 *6:7 *26:A1 0.2283334
24 *6:8 *6:7 1
25 *6:21 *6:20 0.5
26 *6:20 *6:19 6.490179
27 *6:22 *6:21 1.580357
28 *6:23 *6:22 0.5
29 *6:13 *6:12 0.5187501

*END

*D_NET *7 2.000285 //LENGTH 24.499 LUMPCC 0 DR

*CONN
*I *10:Q O *L 0 *C 4.952 2.608
*P *7 O *L 0 *C 6.776 0.258
*I *17:A2 I *L 0.567721 *C 6.016 12.792
*I *16:A2 I *L 0.60771 *C 5.560 14.616
*I *23:A1 I *L 0.564384 *C 3.918 14.793
*I *22:A1 I *L 0.625865 *C 4.359 16.136
*I *29:A2 I *L 0.475974 *C 5.712 16.273
*N *7:7 *C 4.329 14.768
*N *7:8 *C 4.344 14.782
*N *7:9 *C 4.344 16.123
*N *7:10 *C 4.359 16.136
*N *7:11 *C 5.712 16.139
*N *7:12 *C 5.711 16.136
*N *7:13 *C 5.560 16.136
*N *7:14 *C 5.560 14.629
*N *7:15 *C 5.560 14.782
*N *7:16 *C 5.546 14.768
*N *7:17 *C 4.966 14.768
*N *7:18 *C 4.952 14.755
*N *7:19 *C 6.016 12.779
*N *7:20 *C 6.016 12.350
*N *7:21 *C 6.003 12.336
*N *7:22 *C 4.966 12.336
*N *7:23 *C 4.952 12.336
*N *7:24 *C 6.776 2.291
*N *7:25 *C 6.763 2.304
*N *7:26 *C 4.966 2.304
*N *7:27 *C 4.952 2.317
*N *7:28 *C 4.952 2.608

*CAP
0 *10:Q 0.001
1 *7 0.07947671
2 *17:A2 0.001
3 *16:A2 0.001
4 *23:A1 0.03037487
5 *22:A1 0.001
6 *29:A2 0.009289011
7 *7:7 0.02829947
8 *7:8 0.06332823
9 *7:9 0.06159874
10 *7:10 0.08704931
11 *7:11 0.09806781
12 *7:12 0.007017168
13 *7:13 0.08948275
14 *7:14 0.01100824
15 *7:15 0.0928311
16 *7:16 0.02707545
17 *7:17 0.02707545
18 *7:18 0.1029231
19 *7:19 0.01927731
20 *7:20 0.02070999
21 *7:21 0.03809755
22 *7:22 0.03809755
23 *7:23 0.4644092
24 *7:24 0.07710449
25 *7:25 0.06958361
26 *7:26 0.06958361
27 *7:27 0.01223542
28 *7:28 0.3722888

*RES
0 *10:Q *7:28 1
1 *7:11 *7:10 2.7066
2 *7:11 *29:A2 0.219
3 *7:12 *7:11 1
4 *7:14 *16:A2 1
5 *7:15 *7:14 0.255
6 *7:15 *7:13 2.41875
7 *7:16 *7:15 0.5
8 *7:18 *7:17 0.5
9 *7:17 *7:16 1.0375
10 *7:23 *7:22 0.5
11 *7:23 *7:18 4.31875
12 *7:22 *7:21 1.851786
13 *7:20 *7:19 0.7660714
14 *7:21 *7:20 0.5
15 *7:19 *17:A2 1
16 *7:28 *7:27 0.5187501
17 *7:28 *7:23 17.37143
18 *7:27 *7:26 0.5
19 *7:26 *7:25 3.208929
20 *7:24 *7 3.629464
21 *7:25 *7:24 0.5
22 *7:9 *7:8 2.394643
23 *7:7 *23:A1 0.8220001
24 *7:8 *7:7 1
25 *7:13 *7:12 0.2696429
26 *7:10 *7:9 1
27 *7:10 *22:A1 0.001

*END

*D_NET *34 1.061633 //LENGTH 13.407 LUMPCC 0 DR

*CONN
*I *27:Y O *L 0 *C 4.344 13.096
*I *11:D I *L 0.557097 *C 7.384 3.064
*N *34:2 *C 7.384 3.064
*N *34:3 *C 7.384 3.204
*N *34:4 *C 7.371 3.216
*N *34:5 *C 4.357 3.216
*N *34:6 *C 4.344 3.230
*N *34:7 *C 4.344 13.083

*CAP
0 *27:Y 0.001
1 *11:D 0.001
2 *34:2 0.007726009
3 *34:3 0.009158686
4 *34:4 0.150824
5 *34:5 0.150824
6 *34:6 0.3712664
7 *34:7 0.3698338

*RES
0 *27:Y *34:7 1
1 *34:2 *11:D 1
2 *34:3 *34:2 0.2325
3 *34:4 *34:3 0.5
4 *34:6 *34:5 0.5
5 *34:5 *34:4 5.380358
6 *34:7 *34:6 17.59464

*END

*D_NET *35 0.4637918 //LENGTH 5.276 LUMPCC 0 DR

*CONN
*I *21:Y O *L 0 *C 9.193 6.424
*I *12:D I *L 0.557097 *C 7.384 9.630
*N *35:2 *C 7.384 9.600
*N *35:3 *C 7.384 9.587
*N *35:4 *C 7.384 6.421
*N *35:5 *C 7.399 6.408

*CAP
0 *21:Y 0.08950965
1 *12:D 0.006526275
2 *35:2 0.004450877
3 *35:3 0.1379354
4 *35:4 0.1379354
5 *35:5 0.08743425

*RES
0 *21:Y *35:5 3.588
1 *35:2 *12:D 0.02727273
2 *35:3 *35:2 1
3 *35:5 *35:4 1
4 *35:4 *35:3 5.651786

*END

*D_NET *36 0.4454932 //LENGTH 6.258 LUMPCC 0 DR

*CONN
*I *33:Y O *L 0 *C 9.968 14.312
*I *13:D I *L 0.557097 *C 7.384 10.968
*N *36:2 *C 7.384 10.982
*N *36:3 *C 7.384 11.411
*N *36:4 *C 7.397 11.424
*N *36:5 *C 9.955 11.424
*N *36:6 *C 9.968 11.438
*N *36:7 *C 9.968 14.299

*CAP
0 *33:Y 0.001
1 *13:D 0.001
2 *36:2 0.02031835
3 *36:3 0.02175103
4 *36:4 0.0867172
5 *36:5 0.0867172
6 *36:6 0.114711
7 *36:7 0.1132783

*RES
0 *33:Y *36:7 1
1 *36:2 *13:D 1
2 *36:3 *36:2 0.7660715
3 *36:4 *36:3 0.5
4 *36:6 *36:5 0.5
5 *36:5 *36:4 4.566072
6 *36:7 *36:6 5.108929

*END

*D_NET *37 1.519014 //LENGTH 18.936 LUMPCC 0 DR

*CONN
*I *14:Y O *L 0 *C 2.639 6.404
*I *10:RSTB I *L 0.924894 *C 2.824 3.520
*I *13:RSTB I *L 0.924894 *C 8.904 10.512
*I *12:RSTB I *L 0.924894 *C 8.904 10.208
*I *11:RSTB I *L 0.924894 *C 8.904 3.520
*N *37:5 *C 2.642 3.216
*N *37:6 *C 2.824 3.034
*N *37:7 *C 8.600 3.034
*N *37:8 *C 8.418 3.216
*N *37:9 *C 8.891 3.520
*N *37:10 *C 8.891 10.208
*N *37:11 *C 8.891 10.512
*N *37:12 *C 8.600 10.512
*N *37:13 *C 8.600 10.208
*N *37:14 *C 8.600 3.520
*N *37:15 *C 8.600 3.230
*N *37:16 *C 8.588 3.216
*N *37:17 *C 8.600 3.204
*N *37:18 *C 8.587 3.216
*N *37:19 *C 2.838 3.216
*N *37:20 *C 2.824 3.204
*N *37:21 *C 2.812 3.216
*N *37:22 *C 2.824 3.230
*N *37:23 *C 2.824 3.520
*N *37:24 *C 2.824 6.395
*N *37:25 *C 2.812 6.408

*CAP
0 *14:Y 0.0213863
1 *10:RSTB 0.001
2 *13:RSTB 0.001
3 *12:RSTB 0.001
4 *11:RSTB 0.001
5 *37:5 0.01410315
6 *37:6 0.0103425
7 *37:7 0.01052848
8 *37:8 0.01294306
9 *37:9 0.01647891
10 *37:10 0.01633762
11 *37:11 0.01633762
12 *37:12 0.03359982
13 *37:13 0.310454
14 *37:14 0.3167552
15 *37:15 0.01724502
16 *37:16 0.008199169
17 *37:17 0.005785663
18 *37:18 0.2125142
19 *37:19 0.2125142
20 *37:20 0.005599679
21 *37:21 0.009359266
22 *37:22 0.01169948
23 *37:23 0.1229311
24 *37:24 0.1105889
25 *37:25 0.0193109

*RES
0 *14:Y *37:25 0.2875
1 *37:11 *13:RSTB 1
2 *37:10 *12:RSTB 1
3 *37:9 *11:RSTB 1
4 *37:23 *10:RSTB 1
5 *37:23 *37:22 0.5187501
6 *37:15 *37:14 0.5187501
7 *37:16 *37:15 0.5
8 *37:16 *37:8 0.2825
9 *37:17 *37:16 0.5
10 *37:17 *37:7 0.2825
11 *37:18 *37:17 0.5
12 *37:20 *37:19 0.5
13 *37:20 *37:6 0.2825
14 *37:19 *37:18 10.26607
15 *37:21 *37:20 0.5
16 *37:21 *37:5 0.2825
17 *37:22 *37:21 0.5
18 *37:25 *37:24 1
19 *37:24 *37:23 5.133036
20 *37:14 *37:13 11.94286
21 *37:14 *37:9 0.5187501
22 *37:13 *37:12 0.5428572
23 *37:13 *37:10 0.5187501
24 *37:12 *37:11 0.5187501

*END

*D_NET *38 1.53109 //LENGTH 14.597 LUMPCC 0 DR

*CONN
*I *15:Y O *L 0 *C 11.072 4.285
*I *10:D I *L 0.557097 *C 1.292 3.064
*N *38:2 *C 1.165 3.064
*N *38:3 *C 1.152 3.050
*N *38:4 *C 1.152 1.862
*N *38:5 *C 1.167 1.848
*N *38:6 *C 8.433 1.848
*N *38:7 *C 8.448 1.862
*N *38:8 *C 8.448 4.115
*N *38:9 *C 8.462 4.128
*N *38:10 *C 11.171 4.128
*N *38:11 *C 11.184 4.128
*N *38:12 *C 11.184 4.268
*N *38:13 *C 11.171 4.280

*CAP
0 *15:Y 0.01527261
1 *10:D 0.01280019
2 *38:2 0.01072479
3 *38:3 0.04930418
4 *38:4 0.04930418
5 *38:5 0.4610539
6 *38:6 0.4610539
7 *38:7 0.1194404
8 *38:8 0.1191435
9 *38:9 0.100374
10 *38:10 0.100374
11 *38:11 0.009375149
12 *38:12 0.009671968
13 *38:13 0.01319721

*RES
0 *15:Y *38:13 0.1658334
1 *38:2 *10:D 0.2116667
2 *38:3 *38:2 1
3 *38:5 *38:4 1
4 *38:4 *38:3 2.123214
5 *38:6 *38:5 14.532
6 *38:7 *38:6 1
7 *38:8 *38:7 4.023214
8 *38:9 *38:8 0.5
9 *38:11 *38:10 0.5
10 *38:10 *38:9 4.837501
11 *38:13 *38:12 1
12 *38:12 *38:11 0.2325

*END

*D_NET *39 0.135389 //LENGTH 1.044 LUMPCC 0 DR

*CONN
*I *17:Y O *L 0 *C 6.350 12.792
*I *18:A2 I *L 0.483357 *C 7.232 12.929
*N *39:2 *C 7.232 12.792

*CAP
0 *17:Y 0.05867686
1 *18:A2 0.009017628
2 *39:2 0.06769449

*RES
0 *17:Y *39:2 1.764
1 *39:2 *18:A2 0.2240001

*END

*D_NET *40 1.126346 //LENGTH 13.516 LUMPCC 0 DR

*CONN
*I *18:Y O *L 0 *C 7.576 12.792
*I *20:A2 I *L 0.483357 *C 9.512 7.776
*I *19:A1 I *L 0.625865 *C 11.085 6.104
*N *40:3 *C 11.032 6.104
*N *40:4 *C 11.032 6.091
*N *40:5 *C 11.032 4.750
*N *40:6 *C 11.019 4.736
*N *40:7 *C 9.526 4.736
*N *40:8 *C 9.512 4.750
*N *40:9 *C 9.512 7.775
*N *40:10 *C 9.360 7.776
*N *40:11 *C 9.360 12.779
*N *40:12 *C 9.345 12.792

*CAP
0 *18:Y 0.09395132
1 *20:A2 0.001
2 *19:A1 0.01085777
3 *40:3 0.00878237
4 *40:4 0.06164245
5 *40:5 0.06134563
6 *40:6 0.05333425
7 *40:7 0.05333425
8 *40:8 0.1249568
9 *40:9 0.1324045
10 *40:10 0.221822
11 *40:11 0.2110392
12 *40:12 0.09187592

*RES
0 *18:Y *40:12 3.538
1 *40:9 *20:A2 1
2 *40:9 *40:8 5.402678
3 *40:8 *40:7 0.5
4 *40:7 *40:6 2.666071
5 *40:5 *40:4 2.394643
6 *40:6 *40:5 0.5
7 *40:3 *19:A1 0.09166668
8 *40:4 *40:3 1
9 *40:12 *40:11 1
10 *40:11 *40:10 8.933037
11 *40:10 *40:9 0.2714286

*END

*D_NET *41 0.2183485 //LENGTH 2.308 LUMPCC 0 DR

*CONN
*I *20:Y O *L 0 *C 9.856 7.928
*I *21:A2 I *L 0.557409 *C 9.968 6.284
*N *41:2 *C 10.107 6.256
*N *41:3 *C 10.120 6.270
*N *41:4 *C 10.120 7.915
*N *41:5 *C 10.105 7.928

*CAP
0 *20:Y 0.01926933
1 *21:A2 0.01786072
2 *41:2 0.01578533
3 *41:3 0.07411959
4 *41:4 0.07411959
5 *41:5 0.01719393

*RES
0 *20:Y *41:5 0.4980001
1 *41:2 *21:A2 0.2325
2 *41:3 *41:2 1
3 *41:5 *41:4 1
4 *41:4 *41:3 2.9375

*END

*D_NET *42 0.1142862 //LENGTH 1.526 LUMPCC 0 DR

*CONN
*I *19:Y O *L 0 *C 10.424 6.560
*I *21:A1 I *L 0.616969 *C 9.816 6.104
*N *42:2 *C 10.424 6.378
*N *42:3 *C 9.816 6.118
*N *42:4 *C 9.816 6.546
*N *42:5 *C 9.830 6.560
*N *42:6 *C 10.411 6.560
*N *42:7 *C 10.424 6.548

*CAP
0 *19:Y 0.001
1 *21:A1 0.001
2 *42:2 0.01399952
3 *42:3 0.02305931
4 *42:4 0.02449198
5 *42:5 0.0214565
6 *42:6 0.0214565
7 *42:7 0.007822406

*RES
0 *19:Y *42:7 1
1 *42:3 *21:A1 1
2 *42:4 *42:3 0.7660715
3 *42:5 *42:4 0.5
4 *42:7 *42:6 0.5
5 *42:7 *42:2 0.2825
6 *42:6 *42:5 1.0375

*END

*D_NET *43 0.3039286 //LENGTH 3.595 LUMPCC 0 DR

*CONN
*I *23:Y O *L 0 *C 3.696 14.616
*I *24:A2 I *L 0.483357 *C 2.214 16.316
*N *43:2 *C 2.356 16.288
*N *43:3 *C 2.368 16.274
*N *43:4 *C 2.368 15.389
*N *43:5 *C 2.381 15.376
*N *43:6 *C 3.267 15.376
*N *43:7 *C 3.280 15.363
*N *43:8 *C 3.280 14.630
*N *43:9 *C 3.295 14.616

*CAP
0 *23:Y 0.03159671
1 *24:A2 0.01349232
2 *43:2 0.01141693
3 *43:3 0.04374712
4 *43:4 0.0434503
5 *43:5 0.03283861
6 *43:6 0.03283861
7 *43:7 0.03236491
8 *43:8 0.03266173
9 *43:9 0.02952131

*RES
0 *23:Y *43:9 0.8020002
1 *43:2 *24:A2 0.2366667
2 *43:3 *43:2 1
3 *43:4 *43:3 1.580357
4 *43:5 *43:4 0.5
5 *43:7 *43:6 0.5
6 *43:6 *43:5 1.580357
7 *43:9 *43:8 1
8 *43:8 *43:7 1.308929

*END

*D_NET *44 0.2087086 //LENGTH 2.615 LUMPCC 0 DR

*CONN
*I *22:Y O *L 0 *C 3.584 16.592
*I *24:A1 I *L 0.564384 *C 2.094 16.009
*N *44:2 *C 2.520 15.802
*N *44:3 *C 2.505 15.984
*N *44:4 *C 2.520 15.972
*N *44:5 *C 2.534 15.984
*N *44:6 *C 3.571 15.984
*N *44:7 *C 3.584 15.998
*N *44:8 *C 3.584 16.579

*CAP
0 *22:Y 0.001
1 *24:A1 0.02857824
2 *44:2 0.01496265
3 *44:3 0.02650284
4 *44:4 0.01051503
5 *44:5 0.03827404
6 *44:6 0.03827404
7 *44:7 0.02601723
8 *44:8 0.02458455

*RES
0 *22:Y *44:8 1
1 *44:3 *24:A1 0.8220001
2 *44:4 *44:3 1
3 *44:4 *44:2 0.2825
4 *44:5 *44:4 0.5
5 *44:7 *44:6 0.5
6 *44:6 *44:5 1.851786
7 *44:8 *44:7 1.0375

*END

*D_NET *45 0.2962556 //LENGTH 3.471 LUMPCC 0 DR

*CONN
*I *24:Y O *L 0 *C 1.912 16.136
*I *25:A1 I *L 0.625865 *C 2.051 14.616
*I *26:A2 I *L 0.483357 *C 1.912 12.944
*N *45:3 *C 1.912 12.945
*N *45:4 *C 1.925 14.616
*N *45:5 *C 1.912 14.616
*N *45:6 *C 1.912 16.123

*CAP
0 *24:Y 0.001
1 *25:A1 0.01367525
2 *26:A2 0.001
3 *45:3 0.07299222
4 *45:4 0.01159986
5 *45:5 0.137171
6 *45:6 0.05881729

*RES
0 *24:Y *45:6 1
1 *45:6 *45:5 2.690179
2 *45:4 *25:A1 0.2116667
3 *45:5 *45:4 1
4 *45:5 *45:3 2.983929
5 *45:3 *26:A2 1

*END

*D_NET *46 0.1681078 //LENGTH 1.987 LUMPCC 0 DR

*CONN
*I *26:Y O *L 0 *C 2.216 12.792
*I *27:A2 I *L 0.557409 *C 3.584 12.944
*N *46:2 *C 3.584 12.762
*N *46:3 *C 3.584 12.931
*N *46:4 *C 3.571 12.944
*N *46:5 *C 2.230 12.944
*N *46:6 *C 2.216 12.931
*N *46:7 *C 2.216 12.792

*CAP
0 *26:Y 0.001
1 *27:A2 0.001
2 *46:2 0.01501077
3 *46:3 0.008833651
4 *46:4 0.05681606
5 *46:5 0.05681606
6 *46:6 0.01503196
7 *46:7 0.01359928

*RES
0 *26:Y *46:7 1
1 *46:3 *27:A2 1
2 *46:3 *46:2 0.2825
3 *46:4 *46:3 0.5
4 *46:6 *46:5 0.5
5 *46:5 *46:4 2.394643
6 *46:7 *46:6 0.2325

*END

*D_NET *47 0.2393224 //LENGTH 2.446 LUMPCC 0 DR

*CONN
*I *25:Y O *L 0 *C 2.854 14.160
*I *27:A1 I *L 0.616969 *C 3.736 12.792
*N *47:2 *C 3.736 12.806
*N *47:3 *C 3.736 14.160
*N *47:4 *C 3.585 14.160
*N *47:5 *C 3.569 14.160

*CAP
0 *25:Y 0.04708188
1 *27:A1 0.001
2 *47:2 0.06361951
3 *47:3 0.07605716
4 *47:4 0.006557355
5 *47:5 0.04500648

*RES
0 *25:Y *47:5 1.43
1 *47:2 *27:A1 1
2 *47:5 *47:4 1
3 *47:4 *47:3 0.2696429
4 *47:3 *47:2 2.41875

*END

*D_NET *48 0.4380617 //LENGTH 5.051 LUMPCC 0 DR

*CONN
*I *16:Y O *L 0 *C 6.183 14.008
*I *18:A1 I *L 0.564384 *C 7.354 12.665
*I *28:A2 I *L 0.705032 *C 7.994 14.464
*N *48:3 *C 7.992 14.438
*N *48:4 *C 7.992 13.400
*N *48:5 *C 6.943 12.640
*N *48:6 *C 6.928 12.654
*N *48:7 *C 6.928 13.400
*N *48:8 *C 6.928 13.995
*N *48:9 *C 6.913 14.008

*CAP
0 *16:Y 0.04552714
1 *18:A1 0.03351928
2 *28:A2 0.001
3 *48:3 0.04437221
4 *48:4 0.08969589
5 *48:5 0.03144388
6 *48:6 0.02909583
7 *48:7 0.09692822
8 *48:8 0.02302757
9 *48:9 0.04345174

*RES
0 *16:Y *48:9 1.46
1 *48:3 *28:A2 0.5
2 *48:5 *18:A1 0.8220001
3 *48:6 *48:5 1
4 *48:9 *48:8 1
5 *48:8 *48:7 1.061607
6 *48:7 *48:6 1.333036
7 *48:7 *48:4 1.9
8 *48:4 *48:3 1.853572

*END

*D_NET *49 0.1742422 //LENGTH 1.465 LUMPCC 0 DR

*CONN
*I *29:Y O *L 0 *C 6.806 16.288
*I *30:A2 I *L 0.483357 *C 8.271 16.313

*CAP
0 *29:Y 0.08712108
1 *30:A2 0.08712108

*RES
0 *29:Y *30:A2 2.93

*END

*D_NET *50 0.2115384 //LENGTH 1.909 LUMPCC 0 DR

*CONN
*I *28:Y O *L 0 *C 8.448 14.160
*I *30:A1 I *L 0.564384 *C 8.448 15.984
*N *50:2 *C 8.448 15.983
*N *50:3 *C 8.448 14.174

*CAP
0 *28:Y 0.001
1 *30:A1 0.001
2 *50:2 0.1047692
3 *50:3 0.1047692

*RES
0 *28:Y *50:3 1
1 *50:2 *30:A1 1
2 *50:3 *50:2 3.23125

*END

*D_NET *51 0.460001 //LENGTH 4.923 LUMPCC 0 DR

*CONN
*I *30:Y O *L 0 *C 8.600 16.136
*I *31:A1 I *L 0.625865 *C 10.272 16.136
*I *32:A2 I *L 0.483357 *C 9.183 14.489
*N *51:3 *C 8.615 14.464
*N *51:4 *C 8.600 14.478
*N *51:5 *C 10.272 16.149
*N *51:6 *C 10.272 16.288
*N *51:7 *C 10.120 16.288
*N *51:8 *C 10.120 15.998
*N *51:9 *C 10.107 15.984
*N *51:10 *C 8.614 15.984
*N *51:11 *C 8.600 15.958
*N *51:12 *C 8.600 16.123

*CAP
0 *30:Y 0.001
1 *31:A1 0.001
2 *32:A2 0.04493596
3 *51:3 0.04286056
4 *51:4 0.09375281
5 *51:5 0.006494847
6 *51:6 0.01786204
7 *51:7 0.02366359
8 *51:8 0.01372908
9 *51:9 0.0548789
10 *51:10 0.0548789
11 *51:11 0.1011026
12 *51:12 0.003841677

*RES
0 *30:Y *51:12 1
1 *51:12 *51:11 0.2758334
2 *51:11 *51:10 0.5
3 *51:11 *51:4 2.64375
4 *51:10 *51:9 2.666071
5 *51:8 *51:7 0.5187501
6 *51:9 *51:8 0.5
7 *51:5 *31:A1 1
8 *51:3 *32:A2 1.136
9 *51:4 *51:3 1
10 *51:7 *51:6 0.2714286
11 *51:6 *51:5 0.2473214

*END

*D_NET *52 0.1500497 //LENGTH 1.835 LUMPCC 0 DR

*CONN
*I *32:Y O *L 0 *C 9.512 14.616
*I *33:A2 I *L 0.557409 *C 10.728 14.464
*N *52:2 *C 10.728 14.282
*N *52:3 *C 10.728 14.452
*N *52:4 *C 10.715 14.464
*N *52:5 *C 9.526 14.464
*N *52:6 *C 9.512 14.464
*N *52:7 *C 9.512 14.604

*CAP
0 *32:Y 0.001
1 *33:A2 0.001
2 *52:2 0.0175878
3 *52:3 0.01141069
4 *52:4 0.0508664
5 *52:5 0.0508664
6 *52:6 0.009375561
7 *52:7 0.007942881

*RES
0 *32:Y *52:7 1
1 *52:3 *33:A2 1
2 *52:3 *52:2 0.2825
3 *52:4 *52:3 0.5
4 *52:6 *52:5 0.5
5 *52:5 *52:4 2.123214
6 *52:7 *52:6 0.2325

*END

*D_NET *53 0.2545703 //LENGTH 2.762 LUMPCC 0 DR

*CONN
*I *31:Y O *L 0 *C 11.032 16.592
*I *33:A1 I *L 0.616969 *C 10.576 14.616
*N *53:2 *C 10.576 14.630
*N *53:3 *C 10.576 15.667
*N *53:4 *C 10.590 15.680
*N *53:5 *C 11.019 15.680
*N *53:6 *C 11.032 15.694
*N *53:7 *C 11.032 16.579

*CAP
0 *31:Y 0.001
1 *33:A1 0.001
2 *53:2 0.06690515
3 *53:3 0.06833783
4 *53:4 0.01846207
5 *53:5 0.01846207
6 *53:6 0.04091793
7 *53:7 0.03948525

*RES
0 *31:Y *53:7 1
1 *53:2 *33:A1 1
2 *53:3 *53:2 1.851786
3 *53:4 *53:3 0.5
4 *53:6 *53:5 0.5
5 *53:5 *53:4 0.7660714
6 *53:7 *53:6 1.580357

*END

*D_NET *54 0.4898611 //LENGTH 5.357 LUMPCC 0 DR

*CONN
*I *10:QN O *L 0 *C 5.120 2.466
*I *15:A I *L 0.434891 *C 8.281 4.432
*N *54:2 *C 6.487 4.432
*N *54:3 *C 6.472 4.418
*N *54:4 *C 6.472 2.470
*N *54:5 *C 6.457 2.456

*CAP
0 *10:QN 0.07119193
1 *15:A 0.0948212
2 *54:2 0.0927458
3 *54:3 0.08099281
4 *54:4 0.08099281
5 *54:5 0.06911653

*RES
0 *10:QN *54:5 2.674
1 *54:2 *15:A 3.588001
2 *54:3 *54:2 1
3 *54:5 *54:4 1
4 *54:4 *54:3 3.480358

*END

